   1
filme
 O  0.000000E+00  0.000000E+00  0.000000E+00
   1
filme
 O  5.000000E+01  0.000000E+00  2.200000E+02
   1
filme
 O  1.500000E+02  -2.000000E+00  6.404000E+02
   1
filme
 O  3.000000E+02  -1.100000E+01  1.212200E+03
   1
filme
 O  5.000000E+02  -3.500000E+01  1.857000E+03
   1
filme
 O  7.500000E+02  -8.500000E+01  2.467000E+03
   1
filme
 O  1.050000E+03  -1.750000E+02  2.905000E+03
   1
filme
 O  1.400000E+03  -3.220000E+02  3.004400E+03
   1
filme
 O  1.800000E+03  -5.460000E+02  2.569199E+03
   1
filme
 O  2.250000E+03  -8.700000E+02  1.373999E+03
   1
filme
 O  2.750000E+03  -1.320000E+03  -8.360010E+02
   1
filme
 O  3.300000E+03  -1.925000E+03  -4.345001E+03
   1
filme
 O  3.900000E+03  -2.717000E+03  -9.466602E+03
   1
filme
 O  4.550000E+03  -3.731000E+03  -1.654380E+04
   1
filme
 O  5.250000E+03  -5.005000E+03  -2.594900E+04
   1
filme
 O  6.000000E+03  -6.580000E+03  -3.808400E+04
   1
filme
 O  6.800000E+03  -8.500000E+03  -5.338000E+04
   1
filme
 O  7.650000E+03  -1.081200E+04  -7.229761E+04
   1
filme
 O  8.550000E+03  -1.356600E+04  -9.532681E+04
   1
filme
 O  9.500000E+03  -1.681500E+04  -1.229870E+05
   1
filme
 O  1.050000E+04  -2.061500E+04  -1.558270E+05
   1
filme
 O  1.155000E+04  -2.502500E+04  -1.944250E+05
   1
filme
 O  1.265000E+04  -3.010700E+04  -2.393886E+05
   1
filme
 O  1.380000E+04  -3.592600E+04  -2.913548E+05
   1
filme
 O  1.500000E+04  -4.255000E+04  -3.509900E+05
   1
filme
 O  1.625000E+04  -5.005000E+04  -4.189900E+05
   1
filme
 O  1.755000E+04  -5.850000E+04  -4.960800E+05
   1
filme
 O  1.890000E+04  -6.797700E+04  -5.830146E+05
   1
filme
 O  2.030000E+04  -7.856100E+04  -6.805778E+05
   1
filme
 O  2.175000E+04  -9.033500E+04  -7.895830E+05
   1
filme
 O  2.325000E+04  -1.033850E+05  -9.108730E+05
   1
filme
 O  2.480000E+04  -1.178000E+05  -1.045320E+06
   1
filme
 O  2.640000E+04  -1.336720E+05  -1.193826E+06
   1
filme
 O  2.805000E+04  -1.510960E+05  -1.357321E+06
   1
filme
 O  2.975000E+04  -1.701700E+05  -1.536766E+06
   1
filme
 O  3.150000E+04  -1.909950E+05  -1.733151E+06
   1
filme
 O  3.330000E+04  -2.136750E+05  -1.947495E+06
   1
filme
 O  3.515000E+04  -2.383170E+05  -2.180846E+06
   1
filme
 O  3.705000E+04  -2.650310E+05  -2.434284E+06
   1
filme
 O  3.900000E+04  -2.939300E+05  -2.708914E+06
   1
filme
 O  4.100000E+04  -3.251300E+05  -3.005874E+06
   1
filme
 O  4.305000E+04  -3.587500E+05  -3.326330E+06
   1
filme
 O  4.515000E+04  -3.949120E+05  -3.671478E+06
   1
filme
 O  4.730000E+04  -4.337410E+05  -4.042542E+06
   1
filme
 O  4.950000E+04  -4.753650E+05  -4.440777E+06
   1
filme
 O  5.175000E+04  -5.199150E+05  -4.867467E+06
   1
filme
 O  5.405000E+04  -5.675250E+05  -5.323925E+06
   1
filme
 O  5.640000E+04  -6.183320E+05  -5.811494E+06
   1
filme
 O  5.880000E+04  -6.724760E+05  -6.331544E+06
   1
filme
 O  6.125000E+04  -7.301000E+05  -6.885480E+06
   1
filme
 O  6.375000E+04  -7.913500E+05  -7.474730E+06
   1
filme
 O  6.630000E+04  -8.563750E+05  -8.100754E+06
   1
filme
 O  6.890000E+04  -9.253270E+05  -8.765044E+06
   1
filme
 O  7.155000E+04  -9.983610E+05  -9.469117E+06
   1
filme
 O  7.425000E+04  -1.075635E+06  -1.021452E+07
   1
filme
 O  7.700000E+04  -1.157310E+06  -1.100284E+07
   1
filme
 O  7.980000E+04  -1.243550E+06  -1.183567E+07
   1
filme
 O  8.265000E+04  -1.334522E+06  -1.271466E+07
   1
filme
 O  8.555000E+04  -1.430396E+06  -1.364146E+07
   1
filme
 O  8.850000E+04  -1.531345E+06  -1.461778E+07
   1
filme
 O  9.150000E+04  -1.637545E+06  -1.564534E+07
   1
filme
 O  9.455000E+04  -1.749175E+06  -1.672589E+07
   1
filme
 O  9.765000E+04  -1.866417E+06  -1.786123E+07
   1
filme
 O  1.008000E+05  -1.989456E+06  -1.905315E+07
   1
filme
 O  1.040000E+05  -2.118480E+06  -2.030350E+07
   1
filme
 O  1.072500E+05  -2.253680E+06  -2.161416E+07
   1
filme
 O  1.105500E+05  -2.395250E+06  -2.298703E+07
   1
filme
 O  1.139000E+05  -2.543387E+06  -2.442403E+07
   1
filme
 O  1.173000E+05  -2.698291E+06  -2.592713E+07
   1
filme
 O  1.207500E+05  -2.860165E+06  -2.749832E+07
   1
filme
 O  1.242500E+05  -3.029215E+06  -2.913961E+07
   1
filme
 O  1.278000E+05  -3.205650E+06  -3.085305E+07
   1
filme
 O  1.314000E+05  -3.389682E+06  -3.264072E+07
   1
filme
 O  1.350500E+05  -3.581526E+06  -3.450474E+07
   1
filme
 O  1.387500E+05  -3.781400E+06  -3.644722E+07
   1
filme
 O  1.425000E+05  -3.989525E+06  -3.847034E+07
   1
filme
 O  1.463000E+05  -4.206125E+06  -4.057630E+07
   1
filme
 O  1.501500E+05  -4.431427E+06  -4.276732E+07
   1
filme
 O  1.540500E+05  -4.665661E+06  -4.504566E+07
   1
filme
 O  1.580000E+05  -4.909060E+06  -4.741358E+07
   1
filme
 O  1.620000E+05  -5.161860E+06  -4.987342E+07
   1
filme
 O  1.660500E+05  -5.424300E+06  -5.242752E+07
   1
filme
 O  1.701500E+05  -5.696622E+06  -5.507823E+07
   1
filme
 O  1.743000E+05  -5.979071E+06  -5.782797E+07
   1
filme
 O  1.785000E+05  -6.271895E+06  -6.067917E+07
   1
filme
 O  1.827500E+05  -6.575345E+06  -6.363428E+07
   1
filme
 O  1.870500E+05  -6.889675E+06  -6.669579E+07
   1
filme
 O  1.914000E+05  -7.215142E+06  -6.986622E+07
   1
filme
 O  1.958000E+05  -7.552006E+06  -7.314813E+07
   1
filme
 O  2.002500E+05  -7.900530E+06  -7.654408E+07
   1
filme
 O  2.047500E+05  -8.260980E+06  -8.005669E+07
   1
filme
 O  2.093000E+05  -8.633625E+06  -8.368859E+07
   1
filme
 O  2.139000E+05  -9.018737E+06  -8.744245E+07
   1
filme
 O  2.185500E+05  -9.416591E+06  -9.132096E+07
   1
filme
 O  2.232500E+05  -9.827465E+06  -9.532685E+07
   1
filme
 O  2.280000E+05  -1.025164E+07  -9.946286E+07
   1
filme
 O  2.328000E+05  -1.068940E+07  -1.037318E+08
   1
filme
 O  2.376500E+05  -1.114103E+07  -1.081364E+08
   1
filme
 O  2.425500E+05  -1.160683E+07  -1.126797E+08
   1
filme
 O  2.475000E+05  -1.208708E+07  -1.173643E+08
   1
filme
 O  2.525000E+05  -1.258208E+07  -1.221933E+08
